powerfulcases/cases/matpower/case1951rte/case1951rte.raw
0, 100, 33, 0, 0, 60  / 28-Jan-2026 21:51:10 - MATPOWER 8.1


     1, 'BUS 1       ',       225, 1,    1,    1, 1,  1.04156438, -18.7605322, 1.08889, 0.888889, 1.08889, 0.888889
     2, 'BUS 2       ',       380, 1,    1,    1, 1,  1.08106794, -5.18369103, 1.10263, 1.04841, 1.10263, 1.04841
     3, 'BUS 3       ',       225, 1,    1,    1, 1,   1.0656352, -23.6250868, 1.08444, 1.00444, 1.08444, 1.00444
     4, 'BUS 4       ',       150, 1,    1,    1, 1,  1.07515462, -8.37850762, 1.10667,  0.9, 1.10667,  0.9
     5, 'BUS 5       ',       225, 1,    1,    1, 1,  1.07006503,  -11.708988, 1.08889, 0.933333, 1.08889, 0.933333
     6, 'BUS 6       ',       225, 1,    1,    1, 1,  1.06761706, -12.7555868, 1.08889, 0.933333, 1.08889, 0.933333
     7, 'BUS 7       ',       380, 1,    1,    1, 1,  1.08498144, -10.6561462, 1.10526, 1.03947, 1.10526, 1.03947
     8, 'BUS 8       ',       380, 1,    1,    1, 1,  1.08034677, -12.0089294, 1.10526, 1.03947, 1.10526, 1.03947
     9, 'BUS 9       ',       225, 1,    1,    1, 1,  1.07715395, -28.5404943, 1.09035, 1.00444, 1.09035, 1.00444
    10, 'BUS 10      ',       225, 1,    1,    1, 1,  1.03576701, -15.9359498, 1.08889, 0.933333, 1.08889, 0.933333
    11, 'BUS 11      ',       225, 1,    1,    1, 1,  1.06282947,  -29.531373, 1.08889, 1.00444, 1.08889, 1.00444
    12, 'BUS 12      ',       225, 1,    1,    1, 1,  1.07585852, -25.1250922, 1.08889, 1.00444, 1.08889, 1.00444
    13, 'BUS 13      ',       225, 1,    1,    1, 1,  1.06261654, -29.5333165, 1.08889, 1.00444, 1.08889, 1.00444
    14, 'BUS 14      ',       225, 1,    1,    1, 1,  1.05844345, -15.7274267, 1.08252, 0.95, 1.08252, 0.95
    15, 'BUS 15      ',       225, 1,    1,    1, 1,  1.08790993, -14.1190989, 1.08889, 1.00444, 1.08889, 1.00444
    16, 'BUS 16      ',       225, 1,    1,    1, 1,  1.08791035, -14.1191018, 1.08889, 1.00444, 1.08889, 1.00444
    17, 'BUS 17      ',       225, 1,    1,    1, 1,  1.05909858, -15.6001731, 1.08889, 0.888889, 1.08889, 0.888889
    18, 'BUS 18      ',       225, 1,    1,    1, 1,  1.07270734, -3.32993923, 1.09633, 0.986667, 1.09633, 0.986667
    19, 'BUS 19      ',       225, 1,    1,    1, 1,  1.04710477, -26.5178114, 1.08889, 1.00444, 1.08889, 1.00444
    20, 'BUS 20      ',       225, 1,    1,    1, 1,  1.04717004, -26.5150054, 1.08889, 1.00444, 1.08889, 1.00444
    21, 'BUS 21      ',       225, 1,    1,    1, 1,  1.06072447, -26.4664782, 1.08889, 1.00444, 1.08889, 1.00444
    22, 'BUS 22      ',       225, 1,    1,    1, 1,  1.04639908, -11.4421501, 1.08889, 0.986667, 1.08889, 0.986667
    23, 'BUS 23      ',       225, 1,    1,    1, 1,  1.04575021, -15.6103279, 1.08889, 0.888889, 1.08889, 0.888889
    25, 'BUS 25      ',       225, 1,    1,    1, 1,  1.05831954, -29.2376787, 1.08444, 1.00889, 1.08444, 1.00889
    26, 'BUS 26      ',       225, 1,    1,    1, 1,  1.05865407, -29.1899598, 1.08444, 1.00889, 1.08444, 1.00889
    27, 'BUS 27      ',       225, 1,    1,    1, 1,  1.04967389, -14.6525594, 1.08889, 0.933333, 1.08889, 0.933333
    28, 'BUS 28      ',       225, 1,    1,    1, 1,  1.06569731, -25.8734958, 1.08889, 1.00444, 1.08889, 1.00444
    29, 'BUS 29      ',       380, 1,    1,    1, 1,  1.08115206, -5.17192727, 1.10526, 1.04842, 1.10526, 1.04842
    30, 'BUS 30      ',       380, 1,    1,    1, 1,  1.08119505, -5.17597093, 1.10526, 1.04842, 1.10526, 1.04842
    31, 'BUS 31      ',       225, 1,    1,    1, 1,   1.0636679, -10.0261516, 1.08444, 1.00889, 1.08444, 1.00889
    33, 'BUS 33      ',       225, 1,    1,    1, 1,  1.06618321, -17.6807489, 1.08444, 1.00889, 1.08444, 1.00889
    34, 'BUS 34      ',       225, 1,    1,    1, 1,  1.02444176, -27.4213197, 1.08889, 1.00444, 1.08889, 1.00444
  2013, 'BUS 2013    ',       225, 1,    1,    1, 1,  1.06403148, -29.3493165, 1.08889, 1.00444, 1.08889, 1.00444
    35, 'BUS 35      ',       150, 1,    1,    1, 1,  1.06610649, -14.1519555, 1.08, 0.966667, 1.08, 0.966667
    36, 'BUS 36      ',       225, 1,    1,    1, 1,  1.04297751, -21.0626539, 1.09212,    1, 1.09212,    1
    37, 'BUS 37      ',       380, 1,    1,    1, 1,  1.05139194, -17.7697503, 1.10526, 1.04785, 1.10526, 1.04785
    38, 'BUS 38      ',       225, 1,    1,    1, 1,  1.01387729, -15.7527596, 1.08889, 0.986667, 1.08889, 0.986667
    39, 'BUS 39      ',       225, 1,    1,    1, 1,  1.06019205, -15.3961898, 1.08889, 0.968889, 1.08889, 0.968889
    40, 'BUS 40      ',       380, 1,    1,    1, 1,   1.0769765, -12.2197115, 1.10526,    1, 1.10526,    1
    41, 'BUS 41      ',       225, 1,    1,    1, 1,  1.05178141,  -14.098502, 1.08889, 0.933333, 1.08889, 0.933333
    42, 'BUS 42      ',       225, 1,    1,    1, 1,  1.05630889, -13.9328223, 1.08889, 0.888889, 1.08889, 0.888889
    43, 'BUS 43      ',       225, 1,    1,    1, 1,  1.05646065, -13.9381507, 1.08889, 0.888889, 1.08889, 0.888889
    44, 'BUS 44      ',       225, 1,    1,    1, 1,  1.06911964, -32.0998433, 1.08496, 1.00444, 1.08496, 1.00444
    45, 'BUS 45      ',       225, 1,    1,    1, 1,  1.06614528, -28.5768462, 1.08889, 1.00444, 1.08889, 1.00444
    46, 'BUS 46      ',       150, 2,    1,    1, 1,       1.107,  -18.072141, 1.10843,  0.9, 1.10843,  0.9
    47, 'BUS 47      ',       225, 1,    1,    1, 1,  1.05354741, -26.6612924, 1.08889, 1.00444, 1.08889, 1.00444
    48, 'BUS 48      ',       225, 1,    1,    1, 1,  1.05354719, -26.6612912, 1.08889, 1.00444, 1.08889, 1.00444
    49, 'BUS 49      ',       225, 1,    1,    1, 1,  1.05354593, -26.6612843, 1.08889, 1.00444, 1.08889, 1.00444
    50, 'BUS 50      ',       225, 1,    1,    1, 1,  1.06578335, -26.4434558, 1.08889, 1.00444, 1.08889, 1.00444
    51, 'BUS 51      ',       225, 1,    1,    1, 1,  1.05746282, -20.4854434, 1.08889,    1, 1.08889,    1
    52, 'BUS 52      ',       225, 1,    1,    1, 1,  1.04135352, -16.3222847, 1.08889, 0.888889, 1.08889, 0.888889
    53, 'BUS 53      ',       225, 1,    1,    1, 1,  1.06973141, -8.50140014, 1.08889, 0.968889, 1.08889, 0.968889
    54, 'BUS 54      ',       380, 1,    1,    1, 1,  1.08890401, -4.64227747, 1.10526,    1, 1.10526,    1
    55, 'BUS 55      ',       225, 1,    1,    1, 1,  1.06407623, -16.1231815, 1.08444, 1.00889, 1.08444, 1.00889
    56, 'BUS 56      ',       225, 1,    1,    1, 1,  1.06440602, -16.1076063, 1.08444, 1.00889, 1.08444, 1.00889
  1827, 'BUS 1827    ',       225, 1,    1,    1, 1,  1.05483935,  -31.002001, 1.08889, 1.00444, 1.08889, 1.00444
    57, 'BUS 57      ',       225, 1,    1,    1, 1,   1.0806565, -17.7415167, 1.08945, 0.933333, 1.08945, 0.933333
    58, 'BUS 58      ',       150, 2,    1,    1, 1,       1.107,  -18.193085, 1.10862,  0.9, 1.10862,  0.9
    59, 'BUS 59      ',       225, 1,    1,    1, 1,  1.07760874, -15.8021377, 1.08444, 1.00889, 1.08444, 1.00889
    60, 'BUS 60      ',       225, 1,    1,    1, 1,  1.07726643, -15.7989856, 1.08444, 1.00889, 1.08444, 1.00889
    61, 'BUS 61      ',       225, 1,    1,    1, 1,   1.0747733, -16.0337578, 1.08889, 0.977778, 1.08889, 0.977778
    62, 'BUS 62      ',       225, 1,    1,    1, 1,  1.05699956, -13.1681928, 1.08889, 0.888889, 1.08889, 0.888889
    63, 'BUS 63      ',       225, 1,    1,    1, 1,  1.07829683, -12.6395777, 1.08889, 0.933333, 1.08889, 0.933333
    64, 'BUS 64      ',       225, 1,    1,    1, 1,   1.0744217, -25.4217122, 1.08889, 1.00444, 1.08889, 1.00444
    65, 'BUS 65      ',       225, 1,    1,    1, 1,  1.07655969, -28.6287587, 1.08889, 1.00444, 1.08889, 1.00444
    66, 'BUS 66      ',       225, 1,    1,    1, 1,  1.05838711, -20.6923406, 1.08889,    1, 1.08889,    1
    67, 'BUS 67      ',       225, 1,    1,    1, 1,  1.07592569, -19.7532247, 1.08889, 0.986667, 1.08889, 0.986667
    68, 'BUS 68      ',       225, 1,    1,    1, 1,  1.06446453, -13.7025347, 1.08889, 0.888889, 1.08889, 0.888889
    69, 'BUS 69      ',       225, 1,    1,    1, 1,  1.04917902, -15.1066001, 1.08889, 0.888889, 1.08889, 0.888889
    70, 'BUS 70      ',       380, 1,    1,    1, 1,  1.07332678,  -10.103762, 1.10526, 1.01316, 1.10526, 1.01316
    71, 'BUS 71      ',       225, 1,    1,    1, 1,  1.04641816, -26.7134126, 1.08889, 1.00444, 1.08889, 1.00444
    72, 'BUS 72      ',       225, 1,    1,    1, 1,  1.06704471, -25.5768043, 1.08889, 1.00444, 1.08889, 1.00444
    73, 'BUS 73      ',       225, 1,    1,    1, 1,  1.05515064, -11.3556645, 1.08889, 0.977778, 1.08889, 0.977778
    74, 'BUS 74      ',       225, 1,    1,    1, 1,  1.05516063, -11.3549997, 1.08889, 0.977778, 1.08889, 0.977778
    75, 'BUS 75      ',       225, 1,    1,    1, 1,  1.05235831, -12.1905831, 1.08444, 1.00889, 1.08444, 1.00889
    76, 'BUS 76      ',       225, 1,    1,    1, 1,  1.07808736, -27.9048204, 1.08444, 1.00444, 1.08444, 1.00444
    77, 'BUS 77      ',       380, 1,    1,    1, 1,  1.09685042, -21.8573699, 1.10263, 1.04211, 1.10263, 1.04211
    78, 'BUS 78      ',       225, 1,    1,    1, 1,  1.07774646,   -27.96428, 1.08444, 1.00444, 1.08444, 1.00444
    79, 'BUS 79      ',       225, 1,    1,    1, 1,  1.07687015, -24.9582836, 1.08936, 1.00444, 1.08936, 1.00444
    80, 'BUS 80      ',       225, 1,    1,    1, 1,  1.07673646,   -24.96856, 1.08936, 1.00444, 1.08936, 1.00444
    81, 'BUS 81      ',       225, 1,    1,    1, 1,  1.08188741, -5.91721723, 1.08889, 0.888889, 1.08889, 0.888889
    82, 'BUS 82      ',       225, 1,    1,    1, 1,  1.04945467,   -16.20331, 1.08124, 0.95, 1.08124, 0.95
    83, 'BUS 83      ',       225, 1,    1,    1, 1,   1.0716185, -7.24635721, 1.08889, 0.888889, 1.08889, 0.888889
    84, 'BUS 84      ',       225, 1,    1,    1, 1,    1.034934, -22.1996272, 1.08889,    1, 1.08889,    1
    85, 'BUS 85      ',       225, 1,    1,    1, 1,  1.02554525, -16.8542205, 1.08889,    1, 1.08889,    1
    86, 'BUS 86      ',       380, 1,    1,    1, 1,  1.06351772, -16.7985481, 1.10526, 1.0507, 1.10526, 1.0507
    87, 'BUS 87      ',       225, 1,    1,    1, 1,  1.03705627, -17.2941213, 1.08889,    1, 1.08889,    1
    88, 'BUS 88      ',       225, 1,    1,    1, 1,  1.05548392, -20.9611239, 1.08889,    1, 1.08889,    1
    89, 'BUS 89      ',       150, 2,    1,    1, 1,       1.042, -21.4174188,  1.1,  0.9,  1.1,  0.9
    90, 'BUS 90      ',       225, 1,    1,    1, 1,  1.02869716, -17.4500518, 1.08889, 0.986667, 1.08889, 0.986667
    91, 'BUS 91      ',       225, 1,    1,    1, 1,  1.06110535, -10.0110656, 1.08444, 1.00889, 1.08444, 1.00889
    92, 'BUS 92      ',       380, 1,    1,    1, 1,  1.09628154, -10.2752898, 1.10526, 1.04211, 1.10526, 1.04211
    93, 'BUS 93      ',       380, 1,    1,    1, 1,  1.09626652,  -10.340859, 1.10526, 1.04211, 1.10526, 1.04211
    96, 'BUS 96      ',       225, 1,    1,    1, 1,  1.03899906, -21.2493279, 1.08889,    1, 1.08889,    1
    97, 'BUS 97      ',       225, 1,    1,    1, 1,  1.05967534,  -26.340449, 1.08889, 1.00444, 1.08889, 1.00444
    98, 'BUS 98      ',       150, 1,    1,    1, 1,  1.08980899, -20.3391461,  1.1,  0.9,  1.1,  0.9
    99, 'BUS 99      ',       225, 1,    1,    1, 1,  1.06178937, -19.5760228, 1.08889,    1, 1.08889,    1
   100, 'BUS 100     ',       225, 2,    1,    1, 1,       1.047, -26.5626014, 1.08294, 0.95, 1.08294, 0.95
   101, 'BUS 101     ',       225, 1,    1,    1, 1,  1.06996351, -11.6033709, 1.08889, 0.933333, 1.08889, 0.933333
   102, 'BUS 102     ',       380, 1,    1,    1, 1,  1.08055246, -11.9300387, 1.10526, 1.03947, 1.10526, 1.03947
   103, 'BUS 103     ',       380, 1,    1,    1, 1,  1.08508578, -10.5926161, 1.10526, 1.03947, 1.10526, 1.03947
   104, 'BUS 104     ',       225, 1,    1,    1, 1,  1.06318926, -29.5087399, 1.08889, 1.00444, 1.08889, 1.00444
  1828, 'BUS 1828    ',       225, 1,    1,    1, 1,  1.02240079, -27.6979378, 1.08889, 1.00444, 1.08889, 1.00444
   105, 'BUS 105     ',       225, 1,    1,    1, 1,  1.01450076,  -8.3217023, 1.08889, 0.986667, 1.08889, 0.986667
   106, 'BUS 106     ',       225, 1,    1,    1, 1,   1.0630316, -29.5180192, 1.08889, 1.00444, 1.08889, 1.00444
   107, 'BUS 107     ',       225, 1,    1,    1, 1,  1.05758647, -16.7313497, 1.08889, 0.933333, 1.08889, 0.933333
   108, 'BUS 108     ',       380, 1,    1,    1, 1,  1.08771263, -13.0937463, 1.10526, 1.03947, 1.10526, 1.03947
   109, 'BUS 109     ',       225, 1,    1,    1, 1,  1.05221496, -19.4217549, 1.08889,    1, 1.08889,    1
   110, 'BUS 110     ',       225, 1,    1,    1, 1,  1.06427041, -27.6469799, 1.08986, 1.00444, 1.08986, 1.00444
   111, 'BUS 111     ',       225, 1,    1,    1, 1,  1.04763532, -21.4392047, 1.09612,    1, 1.09612,    1
   112, 'BUS 112     ',       225, 1,    1,    1, 1,  1.04821999, -6.09889487, 1.08889, 0.986667, 1.08889, 0.986667
   113, 'BUS 113     ',       225, 1,    1,    1, 1,  1.07717994, -28.5335703, 1.09036, 1.00444, 1.09036, 1.00444
   114, 'BUS 114     ',       225, 1,    1,    1, 1,  1.03178823, -16.9927091, 1.08889, 0.924444, 1.08889, 0.924444
   115, 'BUS 115     ',       225, 1,    1,    1, 1,  1.09231277, -2.05616396, 1.09614, 0.986667, 1.09614, 0.986667
   117, 'BUS 117     ',       380, 1,    1,    1, 1,  1.09389537, -0.736208536, 1.10526, 1.03947, 1.10526, 1.03947
   119, 'BUS 119     ',       225, 1,    1,    1, 1,  1.06047317, -44.1201427, 1.08444, 1.00444, 1.08444, 1.00444
   120, 'BUS 120     ',       225, 1,    1,    1, 1,  1.06060073, -27.8034859, 1.08444, 1.00889, 1.08444, 1.00889
   121, 'BUS 121     ',       380, 1,    1,    1, 1,  1.05482056, -24.8317459, 1.10263, 1.02895, 1.10263, 1.02895
   122, 'BUS 122     ',       225, 1,    1,    1, 1,  1.05814282, -16.7377638, 1.08889, 0.933333, 1.08889, 0.933333
   123, 'BUS 123     ',       225, 1,    1,    1, 1,  1.05310157, -14.5175799, 1.08889, 0.933333, 1.08889, 0.933333
   124, 'BUS 124     ',        63, 1,    1,    1, 1, 0.985502684, -27.6805947, 1.07937, 0.920635, 1.07937, 0.920635
   125, 'BUS 125     ',       225, 2,    1,    1, 1,       1.075, -11.1822707, 1.07476, 0.95, 1.07476, 0.95
   126, 'BUS 126     ',       225, 1,    1,    1, 1,  1.06254415, -12.6191896, 1.09768,    1, 1.09768,    1
   127, 'BUS 127     ',       380, 1,    1,    1, 1,  1.06165332, -12.4481019, 1.10526, 1.05263, 1.10526, 1.05263
   128, 'BUS 128     ',       380, 1,    1,    1, 1,  1.06171209, -12.4449647, 1.10526, 1.05263, 1.10526, 1.05263
   129, 'BUS 129     ',       380, 1,    1,    1, 1,  1.06171169, -12.4414276, 1.10526, 1.05263, 1.10526, 1.05263
   130, 'BUS 130     ',       380, 1,    1,    1, 1,  1.06171591, -12.4569342, 1.10526, 1.05263, 1.10526, 1.05263
   131, 'BUS 131     ',       225, 1,    1,    1, 1,  1.09281722, -1.93828436, 1.09645, 0.986667, 1.09645, 0.986667
   132, 'BUS 132     ',       225, 1,    1,    1, 1,  1.09321091, -1.89406103, 1.09645, 0.986667, 1.09645, 0.986667
   133, 'BUS 133     ',       380, 1,    1,    1, 1,  1.09428806, -0.660018481, 1.10526, 1.03947, 1.10526, 1.03947
   134, 'BUS 134     ',       225, 1,    1,    1, 1,  1.04658623, -17.4078023, 1.08889, 0.968889, 1.08889, 0.968889
   135, 'BUS 135     ',       225, 1,    1,    1, 1,  1.05841531, -29.1726294, 1.08444, 1.00889, 1.08444, 1.00889
   136, 'BUS 136     ',       380, 1,    1,    1, 1,   1.0929023, -14.4428309, 1.10526, 1.03947, 1.10526, 1.03947
   137, 'BUS 137     ',       225, 1,    1,    1, 1,  1.06624388, -13.5936809, 1.08889, 0.933333, 1.08889, 0.933333
   138, 'BUS 138     ',       380, 1,    1,    1, 1,  1.08828937, -8.66210604, 1.10526, 1.03947, 1.10526, 1.03947
   140, 'BUS 140     ',       225, 1,    1,    1, 1,  1.06351924, -7.79387525, 1.08444, 1.00889, 1.08444, 1.00889
   142, 'BUS 142     ',       225, 1,    1,    1, 1,  1.06383645, -21.4009263, 1.08444, 1.00444, 1.08444, 1.00444
   143, 'BUS 143     ',       225, 1,    1,    1, 1,  1.06497019, -14.3219682, 1.08889, 0.933333, 1.08889, 0.933333
   144, 'BUS 144     ',       225, 1,    1,    1, 1,  1.06495666, -14.3218418, 1.08889, 0.933333, 1.08889, 0.933333
   145, 'BUS 145     ',       225, 1,    1,    1, 1,   1.0643289, -27.6335599, 1.08952, 1.00444, 1.08952, 1.00444
   146, 'BUS 146     ',       225, 1,    1,    1, 1,  1.08425216, -15.6314329, 1.09478,    1, 1.09478,    1
   147, 'BUS 147     ',       225, 1,    1,    1, 1,  1.08425017,  -15.631411, 1.09478,    1, 1.09478,    1
   148, 'BUS 148     ',       225, 1,    1,    1, 1,  1.03703861, -21.6794528, 1.08889,    1, 1.08889,    1
   149, 'BUS 149     ',       225, 1,    1,    1, 1,  1.07013482, -22.6530178, 1.08889, 1.00444, 1.08889, 1.00444
   150, 'BUS 150     ',       225, 1,    1,    1, 1,  1.05711849, -10.5337034, 1.08444, 1.00889, 1.08444, 1.00889
   151, 'BUS 151     ',       225, 1,    1,    1, 1,  1.03024139, -22.9196088, 1.08889,    1, 1.08889,    1
   152, 'BUS 152     ',       225, 1,    1,    1, 1,  1.06766178, -18.9937986, 1.08444, 1.00889, 1.08444, 1.00889
   153, 'BUS 153     ',       225, 1,    1,    1, 1,  1.06754722, -19.0037956, 1.08444, 1.00889, 1.08444, 1.00889
   154, 'BUS 154     ',       225, 1,    1,    1, 1,  1.06827365, -13.7799283, 1.08444, 1.00889, 1.08444, 1.00889
   155, 'BUS 155     ',       380, 1,    1,    1, 1,   1.0673204,   -10.88961, 1.10263, 1.02895, 1.10263, 1.02895
   156, 'BUS 156     ',       225, 1,    1,    1, 1,  1.07127045,  -6.9727557, 1.08889, 0.888889, 1.08889, 0.888889
   157, 'BUS 157     ',       225, 1,    1,    1, 1,  1.06255578, -12.6189505, 1.09766,    1, 1.09766,    1
   158, 'BUS 158     ',       380, 1,    1,    1, 1,   1.0616181, -12.5220373, 1.10526, 1.05263, 1.10526, 1.05263
   159, 'BUS 159     ',       225, 1,    1,    1, 1,  1.06931636, -20.6089851, 1.08889, 0.986667, 1.08889, 0.986667
   160, 'BUS 160     ',       225, 1,    1,    1, 1,  1.05141863, -20.1476127, 1.08889,    1, 1.08889,    1
   161, 'BUS 161     ',       225, 1,    1,    1, 1,  1.06392624, -47.4453651, 1.08444, 1.00444, 1.08444, 1.00444
   162, 'BUS 162     ',       225, 1,    1,    1, 1,  1.06392624, -47.4453651, 1.08444, 1.00444, 1.08444, 1.00444
   163, 'BUS 163     ',       225, 1,    1,    1, 1,   1.0639337,  -47.445562, 1.08444, 1.00444, 1.08444, 1.00444
   164, 'BUS 164     ',       225, 1,    1,    1, 1,  1.06392519, -47.4453374, 1.08444, 1.00444, 1.08444, 1.00444
   165, 'BUS 165     ',       225, 1,    1,    1, 1,  1.04929635, -14.6824704, 1.08889, 0.933333, 1.08889, 0.933333
   166, 'BUS 166     ',       225, 1,    1,    1, 1,  1.05576074, -18.0294421, 1.08889, 0.986667, 1.08889, 0.986667
   167, 'BUS 167     ',       225, 1,    1,    1, 1,  1.08003155,  -15.527337, 1.08941,    1, 1.08941,    1
   168, 'BUS 168     ',       380, 1,    1,    1, 1,  1.10275103,  -13.622405, 1.10526, 1.05263, 1.10526, 1.05263
   169, 'BUS 169     ',       225, 2,    1,    1, 1,       1.065, -10.5301655,  1.1,  0.9,  1.1,  0.9
   170, 'BUS 170     ',       150, 1,    1,    1, 1,  1.06378698, -14.2934056, 1.08, 0.966667, 1.08, 0.966667
   171, 'BUS 171     ',       225, 1,    1,    1, 1,  1.04775939, -26.3346047, 1.08889, 1.00444, 1.08889, 1.00444
   172, 'BUS 172     ',       225, 1,    1,    1, 1,  1.04808518, -26.2519262, 1.08889, 1.00444, 1.08889, 1.00444
   173, 'BUS 173     ',       225, 1,    1,    1, 1,  1.07510823, -7.61404283, 1.08889, 0.888889, 1.08889, 0.888889
   175, 'BUS 175     ',       225, 1,    1,    1, 1,  1.09067669, -15.1361249, 1.09176,    1, 1.09176,    1
   176, 'BUS 176     ',       225, 1,    1,    1, 1,  1.09066171, -15.1401773, 1.09176,    1, 1.09176,    1
   177, 'BUS 177     ',       225, 1,    1,    1, 1,  1.09066018, -15.1413961, 1.09176,    1, 1.09176,    1
   178, 'BUS 178     ',       225, 1,    1,    1, 1,  1.09066031, -15.1416313, 1.09176,    1, 1.09176,    1
   179, 'BUS 179     ',       225, 1,    1,    1, 1,  1.09067577, -15.1363915, 1.09176,    1, 1.09176,    1
   180, 'BUS 180     ',       380, 2,    1,    1, 1,       1.106, -12.5833249, 1.10676,  0.9, 1.10676,  0.9
   181, 'BUS 181     ',       225, 1,    1,    1, 1,  1.03045303, -22.8863773, 1.08889,    1, 1.08889,    1
   182, 'BUS 182     ',       225, 1,    1,    1, 1,   1.0335418, -7.53928529, 1.08889, 0.986667, 1.08889, 0.986667
   183, 'BUS 183     ',       380, 1,    1,    1, 1,  1.10474299, -6.96501055, 1.10526, 1.03947, 1.10526, 1.03947
   184, 'BUS 184     ',       380, 1,    1,    1, 1,  1.10478796, -6.86772685, 1.10526, 1.03947, 1.10526, 1.03947
   185, 'BUS 185     ',       380, 1,    1,    1, 1,  1.10478098, -6.87115596, 1.10526, 1.03947, 1.10526, 1.03947
   186, 'BUS 186     ',       380, 1,    1,    1, 1,  1.10468548, -6.97480017, 1.10526, 1.03947, 1.10526, 1.03947
   187, 'BUS 187     ',       225, 1,    1,    1, 1,  1.04725791, -14.2700815, 1.08889, 0.924444, 1.08889, 0.924444
   188, 'BUS 188     ',       225, 1,    1,    1, 1,  1.01804862, -15.7308514, 1.08889, 0.986667, 1.08889, 0.986667
   189, 'BUS 189     ',       225, 1,    1,    1, 1,  1.06134926, -37.4718026, 1.08444, 1.00444, 1.08444, 1.00444
   190, 'BUS 190     ',       380, 1,    1,    1, 1,   1.1018436, -9.27082043, 1.10263, 1.04211, 1.10263, 1.04211
   191, 'BUS 191     ',       380, 1,    1,    1, 1,  1.10183713, -9.28779269, 1.10263, 1.04211, 1.10263, 1.04211
   192, 'BUS 192     ',       225, 1,    1,    1, 1,  1.04457932, -26.9908917, 1.08889, 1.00444, 1.08889, 1.00444
   193, 'BUS 193     ',       225, 1,    1,    1, 1,  1.05681418, -11.7044815, 1.08889, 0.977778, 1.08889, 0.977778
   194, 'BUS 194     ',       225, 1,    1,    1, 1,  1.05681418, -11.7044815, 1.08889, 0.977778, 1.08889, 0.977778
   195, 'BUS 195     ',       225, 1,    1,    1, 1,  1.04445588, -18.3455179, 1.08889, 0.968889, 1.08889, 0.968889
   196, 'BUS 196     ',       225, 1,    1,    1, 1,  1.04945382, -8.47850214, 1.08889, 0.933333, 1.08889, 0.933333
   197, 'BUS 197     ',       225, 1,    1,    1, 1,  1.04837841, -8.84196539, 1.08889, 0.933333, 1.08889, 0.933333
   198, 'BUS 198     ',       225, 1,    1,    1, 1,  1.05655618, -34.7827512, 1.08444, 1.00444, 1.08444, 1.00444
   199, 'BUS 199     ',       225, 1,    1,    1, 1,  1.06314451, -31.7654117, 1.08444, 1.00444, 1.08444, 1.00444
   200, 'BUS 200     ',       225, 1,    1,    1, 1,  1.06563029, -14.4050668, 1.08889, 0.977778, 1.08889, 0.977778
   201, 'BUS 201     ',       225, 1,    1,    1, 1,   1.0828913, -20.9372042, 1.08444, 1.00444, 1.08444, 1.00444
   202, 'BUS 202     ',       225, 1,    1,    1, 1,   1.0412184,  -18.996918, 1.08889, 0.951111, 1.08889, 0.951111
   203, 'BUS 203     ',       225, 1,    1,    1, 1,  1.06684056, -25.4578425, 1.08889, 1.00444, 1.08889, 1.00444
   204, 'BUS 204     ',       225, 1,    1,    1, 1,  1.01851424, -15.8861409, 1.08889, 0.986667, 1.08889, 0.986667
   205, 'BUS 205     ',       225, 1,    1,    1, 1,  1.05412091, -28.4877683, 1.08444, 1.00889, 1.08444, 1.00889
   206, 'BUS 206     ',       380, 1,    1,    1, 1,  1.05395541, -25.9419917, 1.10263, 1.02895, 1.10263, 1.02895
...
0 / END OF BUS DATA, BEGIN LOAD DATA
     1,  1, 1,    1,    1,      36.4,      19.5, 0, 0, 0, 0, 1, 1, 0
     3,  1, 1,    1,    1,     245.2,      16.4, 0, 0, 0, 0, 1, 1, 0
     5,  1, 1,    1,    1,      51.8,      13.5, 0, 0, 0, 0, 1, 1, 0
     6,  1, 1,    1,    1,      36.6,      11.6, 0, 0, 0, 0, 1, 1, 0
    10,  1, 1,    1,    1,     193.4,      48.9, 0, 0, 0, 0, 1, 1, 0
    11,  1, 1,    1,    1,      57.7,      14.6, 0, 0, 0, 0, 1, 1, 0
    12,  1, 1,    1,    1,      27.8,      24.4, 0, 0, 0, 0, 1, 1, 0
    13,  1, 1,    1,    1,     177.5,      52.5, 0, 0, 0, 0, 1, 1, 0
    14,  1, 1,    1,    1,      75.8,       7.3, 0, 0, 0, 0, 1, 1, 0
    17,  1, 1,    1,    1,      66.2,       0.9, 0, 0, 0, 0, 1, 1, 0
    18,  1, 1,    1,    1,      12.3,       7.1, 0, 0, 0, 0, 1, 1, 0
    19,  1, 1,    1,    1,      67.9,        23, 0, 0, 0, 0, 1, 1, 0
    20,  1, 1,    1,    1,      29.2,       7.2, 0, 0, 0, 0, 1, 1, 0
    21,  1, 1,    1,    1,      77.8,      31.2, 0, 0, 0, 0, 1, 1, 0
    22,  1, 1,    1,    1,     105.6,      22.8, 0, 0, 0, 0, 1, 1, 0
    23,  1, 1,    1,    1,      41.1,       2.7, 0, 0, 0, 0, 1, 1, 0
    25,  1, 1,    1,    1,      56.2,       8.1, 0, 0, 0, 0, 1, 1, 0
    26,  1, 1,    1,    1,      29.3,       6.4, 0, 0, 0, 0, 1, 1, 0
    27,  1, 1,    1,    1,     102.1,        38, 0, 0, 0, 0, 1, 1, 0
    28,  1, 1,    1,    1,     172.1,        40, 0, 0, 0, 0, 1, 1, 0
    31,  1, 1,    1,    1,      36.2,      31.7, 0, 0, 0, 0, 1, 1, 0
    33,  1, 1,    1,    1,     133.2,      20.1, 0, 0, 0, 0, 1, 1, 0
    34,  1, 1,    1,    1,      89.4,      29.6, 0, 0, 0, 0, 1, 1, 0
    35,  1, 1,    1,    1,      10.3,      -0.4, 0, 0, 0, 0, 1, 1, 0
    36,  1, 1,    1,    1,      22.3,       6.7, 0, 0, 0, 0, 1, 1, 0
    38,  1, 1,    1,    1,     144.2,      18.9, 0, 0, 0, 0, 1, 1, 0
    39,  1, 1,    1,    1,     117.8,      31.5, 0, 0, 0, 0, 1, 1, 0
    40,  1, 1,    1,    1,     194.8,      53.6, 0, 0, 0, 0, 1, 1, 0
    41,  1, 1,    1,    1,      64.7,      12.6, 0, 0, 0, 0, 1, 1, 0
    42,  1, 1,    1,    1,      44.6,      15.6, 0, 0, 0, 0, 1, 1, 0
    43,  1, 1,    1,    1,      46.9,      11.7, 0, 0, 0, 0, 1, 1, 0
    44,  1, 1,    1,    1,     381.3,      62.5, 0, 0, 0, 0, 1, 1, 0
    45,  1, 1,    1,    1,     161.5,     -38.5, 0, 0, 0, 0, 1, 1, 0
    49,  1, 1,    1,    1,     123.5,      43.4, 0, 0, 0, 0, 1, 1, 0
    50,  1, 1,    1,    1,        10,       3.7, 0, 0, 0, 0, 1, 1, 0
    52,  1, 1,    1,    1,      74.6,        28, 0, 0, 0, 0, 1, 1, 0
    53,  1, 1,    1,    1,     160.2,      38.2, 0, 0, 0, 0, 1, 1, 0
    55,  1, 1,    1,    1,        31,        11, 0, 0, 0, 0, 1, 1, 0
    56,  1, 1,    1,    1,      14.7,        -1, 0, 0, 0, 0, 1, 1, 0
  1827,  1, 1,    1,    1,     201.2,      11.7, 0, 0, 0, 0, 1, 1, 0
    57,  1, 1,    1,    1,        57,         3, 0, 0, 0, 0, 1, 1, 0
    59,  1, 1,    1,    1,      55.4,      19.7, 0, 0, 0, 0, 1, 1, 0
    60,  1, 1,    1,    1,      55.7,      41.6, 0, 0, 0, 0, 1, 1, 0
    62,  1, 1,    1,    1,      16.4,       4.9, 0, 0, 0, 0, 1, 1, 0
    63,  1, 1,    1,    1,       1.6,      12.7, 0, 0, 0, 0, 1, 1, 0
    64,  1, 1,    1,    1,      29.7,        12, 0, 0, 0, 0, 1, 1, 0
    65,  1, 1,    1,    1,      54.7,      13.6, 0, 0, 0, 0, 1, 1, 0
    66,  1, 1,    1,    1,     -21.9,      -5.1, 0, 0, 0, 0, 1, 1, 0
    67,  1, 1,    1,    1,      29.2,      -2.5, 0, 0, 0, 0, 1, 1, 0
    71,  1, 1,    1,    1,      76.3,      14.3, 0, 0, 0, 0, 1, 1, 0
    72,  1, 1,    1,    1,        29,         5, 0, 0, 0, 0, 1, 1, 0
    75,  1, 1,    1,    1,     182.4,      31.2, 0, 0, 0, 0, 1, 1, 0
    78,  1, 1,    1,    1,     116.1,      17.6, 0, 0, 0, 0, 1, 1, 0
    79,  1, 1,    1,    1,      -7.4,       0.9, 0, 0, 0, 0, 1, 1, 0
    80,  1, 1,    1,    1,        14,      12.6, 0, 0, 0, 0, 1, 1, 0
    81,  1, 1,    1,    1,      48.7,       2.9, 0, 0, 0, 0, 1, 1, 0
    82,  1, 1,    1,    1,      27.9,       3.3, 0, 0, 0, 0, 1, 1, 0
    83,  1, 1,    1,    1,      61.9,      19.7, 0, 0, 0, 0, 1, 1, 0
    84,  1, 1,    1,    1,     158.1,     -16.5, 0, 0, 0, 0, 1, 1, 0
    86,  1, 1,    1,    1,     403.7,     124.8, 0, 0, 0, 0, 1, 1, 0
    87,  1, 1,    1,    1,     108.6,      44.4, 0, 0, 0, 0, 1, 1, 0
    88,  1, 1,    1,    1,     140.7,      36.8, 0, 0, 0, 0, 1, 1, 0
    90,  1, 1,    1,    1,      56.6,      23.2, 0, 0, 0, 0, 1, 1, 0
    91,  1, 1,    1,    1,      12.5,       6.1, 0, 0, 0, 0, 1, 1, 0
    96,  1, 1,    1,    1,      12.7,       0.6, 0, 0, 0, 0, 1, 1, 0
    97,  1, 1,    1,    1,      18.3,      11.1, 0, 0, 0, 0, 1, 1, 0
    98,  1, 1,    1,    1,      90.8,       9.6, 0, 0, 0, 0, 1, 1, 0
    99,  1, 1,    1,    1,      82.1,      -2.6, 0, 0, 0, 0, 1, 1, 0
   100,  1, 1,    1,    1,       1.3,         0, 0, 0, 0, 0, 1, 1, 0
  1828,  1, 1,    1,    1,      86.9,      24.6, 0, 0, 0, 0, 1, 1, 0
   106,  1, 1,    1,    1,      12.8,       7.6, 0, 0, 0, 0, 1, 1, 0
   107,  1, 1,    1,    1,     150.1,      27.1, 0, 0, 0, 0, 1, 1, 0
   109,  1, 1,    1,    1,      32.1,      -1.6, 0, 0, 0, 0, 1, 1, 0
   110,  1, 1,    1,    1,      29.4,       1.2, 0, 0, 0, 0, 1, 1, 0
   111,  1, 1,    1,    1,     131.9,       2.8, 0, 0, 0, 0, 1, 1, 0
   112,  1, 1,    1,    1,     174.9,      55.6, 0, 0, 0, 0, 1, 1, 0
   113,  1, 1,    1,    1,     129.6,      33.2, 0, 0, 0, 0, 1, 1, 0
   114,  1, 1,    1,    1,     245.6,     120.6, 0, 0, 0, 0, 1, 1, 0
   115,  1, 1,    1,    1,      82.1,      14.7, 0, 0, 0, 0, 1, 1, 0
   119,  1, 1,    1,    1,       192,     -29.8, 0, 0, 0, 0, 1, 1, 0
   120,  1, 1,    1,    1,      21.6,     -16.9, 0, 0, 0, 0, 1, 1, 0
   122,  1, 1,    1,    1,      -0.1,      -4.2, 0, 0, 0, 0, 1, 1, 0
   123,  1, 1,    1,    1,     172.6,      37.2, 0, 0, 0, 0, 1, 1, 0
   124,  1, 1,    1,    1,      31.9,      29.8, 0, 0, 0, 0, 1, 1, 0
   126,  1, 1,    1,    1,       4.4,       5.3, 0, 0, 0, 0, 1, 1, 0
   134,  1, 1,    1,    1,     123.5,      26.5, 0, 0, 0, 0, 1, 1, 0
   135,  1, 1,    1,    1,      39.1,      10.1, 0, 0, 0, 0, 1, 1, 0
   136,  1, 1,    1,    1,       4.4,      -3.3, 0, 0, 0, 0, 1, 1, 0
   137,  1, 1,    1,    1,     166.9,      46.7, 0, 0, 0, 0, 1, 1, 0
   140,  1, 1,    1,    1,       202,      20.2, 0, 0, 0, 0, 1, 1, 0
   142,  1, 1,    1,    1,     231.3,     -18.3, 0, 0, 0, 0, 1, 1, 0
   143,  1, 1,    1,    1,      49.3,       7.8, 0, 0, 0, 0, 1, 1, 0
   144,  1, 1,    1,    1,      40.6,      10.3, 0, 0, 0, 0, 1, 1, 0
   145,  1, 1,    1,    1,      49.8,      -6.2, 0, 0, 0, 0, 1, 1, 0
   148,  1, 1,    1,    1,      68.7,       4.5, 0, 0, 0, 0, 1, 1, 0
   149,  1, 1,    1,    1,        30,      -1.5, 0, 0, 0, 0, 1, 1, 0
   150,  1, 1,    1,    1,      52.2,       3.9, 0, 0, 0, 0, 1, 1, 0
   151,  1, 1,    1,    1,      40.2,       6.8, 0, 0, 0, 0, 1, 1, 0
   156,  1, 1,    1,    1,     165.9,      38.2, 0, 0, 0, 0, 1, 1, 0
   159,  1, 1,    1,    1,      37.1,      -0.1, 0, 0, 0, 0, 1, 1, 0
   160,  1, 1,    1,    1,      17.9,      14.6, 0, 0, 0, 0, 1, 1, 0
   164,  1, 1,    1,    1,      96.9,      -7.4, 0, 0, 0, 0, 1, 1, 0
   166,  1, 1,    1,    1,       8.5,      -5.2, 0, 0, 0, 0, 1, 1, 0
   170,  1, 1,    1,    1,        13,         4, 0, 0, 0, 0, 1, 1, 0
   171,  1, 1,    1,    1,      50.4,       4.5, 0, 0, 0, 0, 1, 1, 0
   172,  1, 1,    1,    1,       0.4,       0.6, 0, 0, 0, 0, 1, 1, 0
   173,  1, 1,    1,    1,      29.1,      -7.9, 0, 0, 0, 0, 1, 1, 0
   181,  1, 1,    1,    1,     181.5,      39.9, 0, 0, 0, 0, 1, 1, 0
   182,  1, 1,    1,    1,        32,      21.4, 0, 0, 0, 0, 1, 1, 0
   187,  1, 1,    1,    1,      65.9,      23.3, 0, 0, 0, 0, 1, 1, 0
   188,  1, 1,    1,    1,       5.4,       1.4, 0, 0, 0, 0, 1, 1, 0
   189,  1, 1,    1,    1,     101.7,      -4.3, 0, 0, 0, 0, 1, 1, 0
   190,  1, 1,    1,    1,      -6.8,      -0.2, 0, 0, 0, 0, 1, 1, 0
   191,  1, 1,    1,    1,      -5.3,        -0, 0, 0, 0, 0, 1, 1, 0
   195,  1, 1,    1,    1,     135.5,      19.2, 0, 0, 0, 0, 1, 1, 0
   198,  1, 1,    1,    1,      98.9,      26.5, 0, 0, 0, 0, 1, 1, 0
   199,  1, 1,    1,    1,     299.2,     -25.2, 0, 0, 0, 0, 1, 1, 0
   202,  1, 1,    1,    1,     211.2,        31, 0, 0, 0, 0, 1, 1, 0
   203,  1, 1,    1,    1,      89.7,      19.5, 0, 0, 0, 0, 1, 1, 0
   204,  1, 1,    1,    1,      92.2,        26, 0, 0, 0, 0, 1, 1, 0
   205,  1, 1,    1,    1,      29.6,       2.7, 0, 0, 0, 0, 1, 1, 0
   207,  1, 1,    1,    1,       127,      40.5, 0, 0, 0, 0, 1, 1, 0
   209,  1, 1,    1,    1,     310.2,      64.5, 0, 0, 0, 0, 1, 1, 0
   210,  1, 1,    1,    1,      62.1,      16.8, 0, 0, 0, 0, 1, 1, 0
   211,  1, 1,    1,    1,      91.9,      12.1, 0, 0, 0, 0, 1, 1, 0
   212,  1, 1,    1,    1,      26.8,      -0.9, 0, 0, 0, 0, 1, 1, 0
   213,  1, 1,    1,    1,       133,      16.9, 0, 0, 0, 0, 1, 1, 0
   216,  1, 1,    1,    1,      95.1,      16.3, 0, 0, 0, 0, 1, 1, 0
   219,  1, 1,    1,    1,      34.4,      10.1, 0, 0, 0, 0, 1, 1, 0
   220,  1, 1,    1,    1,       2.2,       3.5, 0, 0, 0, 0, 1, 1, 0
   221,  1, 1,    1,    1,      -7.5,      -7.3, 0, 0, 0, 0, 1, 1, 0
   222,  1, 1,    1,    1,      85.2,      17.1, 0, 0, 0, 0, 1, 1, 0
   223,  1, 1,    1,    1,      38.1,       1.2, 0, 0, 0, 0, 1, 1, 0
   224,  1, 1,    1,    1,      21.4,      -2.1, 0, 0, 0, 0, 1, 1, 0
   225,  1, 1,    1,    1,         7,       3.7, 0, 0, 0, 0, 1, 1, 0
   227,  1, 1,    1,    1,     180.4,        -2, 0, 0, 0, 0, 1, 1, 0
   229,  1, 1,    1,    1,     127.1,        31, 0, 0, 0, 0, 1, 1, 0
   231,  1, 1,    1,    1,      44.4,      13.2, 0, 0, 0, 0, 1, 1, 0
   232,  1, 1,    1,    1,        49,      11.1, 0, 0, 0, 0, 1, 1, 0
   233,  1, 1,    1,    1,      23.8,       0.4, 0, 0, 0, 0, 1, 1, 0
   234,  1, 1,    1,    1,       0.4,       0.5, 0, 0, 0, 0, 1, 1, 0
   235,  1, 1,    1,    1,         4,         1, 0, 0, 0, 0, 1, 1, 0
   236,  1, 1,    1,    1,      30.4,      23.5, 0, 0, 0, 0, 1, 1, 0
   237,  1, 1,    1,    1,     249.6,        70, 0, 0, 0, 0, 1, 1, 0
   239,  1, 1,    1,    1,      56.5,      14.2, 0, 0, 0, 0, 1, 1, 0
   240,  1, 1,    1,    1,      58.6,      15.7, 0, 0, 0, 0, 1, 1, 0
   241,  1, 1,    1,    1,       -50,       0.8, 0, 0, 0, 0, 1, 1, 0
   243,  1, 1,    1,    1,      -9.2,       0.5, 0, 0, 0, 0, 1, 1, 0
   244,  1, 1,    1,    1,      28.9,      24.3, 0, 0, 0, 0, 1, 1, 0
   245,  1, 1,    1,    1,      18.2,       8.4, 0, 0, 0, 0, 1, 1, 0
   246,  1, 1,    1,    1,     -41.3,       6.5, 0, 0, 0, 0, 1, 1, 0
   247,  1, 1,    1,    1,     105.5,      26.5, 0, 0, 0, 0, 1, 1, 0
   251,  1, 1,    1,    1,      25.5,       1.2, 0, 0, 0, 0, 1, 1, 0
   252,  1, 1,    1,    1,     171.9,      30.6, 0, 0, 0, 0, 1, 1, 0
   253,  1, 1,    1,    1,       4.2,         0, 0, 0, 0, 0, 1, 1, 0
   255,  1, 1,    1,    1,       3.8,       7.1, 0, 0, 0, 0, 1, 1, 0
   259,  1, 1,    1,    1,     185.6,      81.4, 0, 0, 0, 0, 1, 1, 0
   260,  1, 1,    1,    1,       119,      80.1, 0, 0, 0, 0, 1, 1, 0
   261,  1, 1,    1,    1,     192.7,      31.7, 0, 0, 0, 0, 1, 1, 0
   262,  1, 1,    1,    1,      15.3,       3.5, 0, 0, 0, 0, 1, 1, 0
   263,  1, 1,    1,    1,     296.4,      84.9, 0, 0, 0, 0, 1, 1, 0
   267,  1, 1,    1,    1,     355.7,       111, 0, 0, 0, 0, 1, 1, 0
   270,  1, 1,    1,    1,      52.3,      16.7, 0, 0, 0, 0, 1, 1, 0
   272,  1, 1,    1,    1,     252.4,     112.7, 0, 0, 0, 0, 1, 1, 0
   273,  1, 1,    1,    1,     322.8,      48.4, 0, 0, 0, 0, 1, 1, 0
   274,  1, 1,    1,    1,      74.3,      48.9, 0, 0, 0, 0, 1, 1, 0
   275,  1, 1,    1,    1,       6.3,       1.4, 0, 0, 0, 0, 1, 1, 0
   276,  1, 1,    1,    1,        48,         8, 0, 0, 0, 0, 1, 1, 0
   279,  1, 1,    1,    1,        45,      46.1, 0, 0, 0, 0, 1, 1, 0
   280,  1, 1,    1,    1,     253.3,      26.3, 0, 0, 0, 0, 1, 1, 0
   284,  1, 1,    1,    1,      40.1,       2.4, 0, 0, 0, 0, 1, 1, 0
   285,  1, 1,    1,    1,     110.1,      18.7, 0, 0, 0, 0, 1, 1, 0
   286,  1, 1,    1,    1,     120.6,      18.1, 0, 0, 0, 0, 1, 1, 0
   287,  1, 1,    1,    1,      35.9,       8.7, 0, 0, 0, 0, 1, 1, 0
   288,  1, 1,    1,    1,      24.2,       6.8, 0, 0, 0, 0, 1, 1, 0
   289,  1, 1,    1,    1,      75.2,      12.5, 0, 0, 0, 0, 1, 1, 0
   290,  1, 1,    1,    1,     176.7,      47.6, 0, 0, 0, 0, 1, 1, 0
   295,  1, 1,    1,    1,     317.6,     108.4, 0, 0, 0, 0, 1, 1, 0
   297,  1, 1,    1,    1,      63.5,      14.5, 0, 0, 0, 0, 1, 1, 0
   303,  1, 1,    1,    1,     342.7,     113.2, 0, 0, 0, 0, 1, 1, 0
   304,  1, 1,    1,    1,      28.9,      -5.7, 0, 0, 0, 0, 1, 1, 0
   305,  1, 1,    1,    1,     -21.4,       7.7, 0, 0, 0, 0, 1, 1, 0
   306,  1, 1,    1,    1,      82.8,      19.7, 0, 0, 0, 0, 1, 1, 0
   309,  1, 1,    1,    1,      88.4,     -29.1, 0, 0, 0, 0, 1, 1, 0
   310,  1, 1,    1,    1,     -12.7,      -1.9, 0, 0, 0, 0, 1, 1, 0
   311,  1, 1,    1,    1,     -27.9,      -8.5, 0, 0, 0, 0, 1, 1, 0
   312,  1, 1,    1,    1,         1,      -8.1, 0, 0, 0, 0, 1, 1, 0
   313,  1, 1,    1,    1,     141.2,      17.7, 0, 0, 0, 0, 1, 1, 0
   314,  1, 1,    1,    1,      57.4,      17.5, 0, 0, 0, 0, 1, 1, 0
   315,  1, 1,    1,    1,      45.8,       6.5, 0, 0, 0, 0, 1, 1, 0
   317,  1, 1,    1,    1,     193.1,      70.9, 0, 0, 0, 0, 1, 1, 0
   318,  1, 1,    1,    1,      82.1,      17.5, 0, 0, 0, 0, 1, 1, 0
   319,  1, 1,    1,    1,      12.5,       3.5, 0, 0, 0, 0, 1, 1, 0
   320,  1, 1,    1,    1,     144.2,       2.1, 0, 0, 0, 0, 1, 1, 0
   321,  1, 1,    1,    1,      20.2,        -5, 0, 0, 0, 0, 1, 1, 0
   323,  1, 1,    1,    1,     143.6,      22.9, 0, 0, 0, 0, 1, 1, 0
   324,  1, 1,    1,    1,      35.2,      17.8, 0, 0, 0, 0, 1, 1, 0
   325,  1, 1,    1,    1,     172.7,     -49.9, 0, 0, 0, 0, 1, 1, 0
   326,  1, 1,    1,    1,      48.9,       0.9, 0, 0, 0, 0, 1, 1, 0
   327,  1, 1,    1,    1,      34.1,       1.4, 0, 0, 0, 0, 1, 1, 0
...
0 / END OF LOAD DATA, BEGIN FIXED SHUNT DATA
    36, 1, 1,       0,      80
    68, 1, 1,       0,      80
   209, 1, 1,       0,      80
   256, 1, 1,       0,      80
   295, 1, 1,       0,     325
   297, 1, 1,       0,      80
   317, 1, 1,       0,      80
   335, 1, 1,       0,      80
   344, 1, 1,       0,      80
   513, 1, 1,       0,      80
   515, 1, 1,       0,      80
   712, 1, 1,       0,      80
   741, 1, 1,       0,      59
  2016, 1, 1,       0,     -64
   791, 1, 1,       0,      80
   810, 1, 1,       0,      80
   892, 1, 1,       0,     -80
   953, 1, 1,       0,      80
   962, 1, 1,       0,      80
   987, 1, 1,       0,      80
  1104, 1, 1,       0,      80
  1144, 1, 1,       0,      80
  1183, 1, 1,       0,      80
  1196, 1, 1,       0,      80
0 / END OF FIXED SHUNT DATA, BEGIN GENERATOR DATA
  1268,  1,      44.5,      2.55,        27,        -9,    1.029, 0,     100, 0, 1, 0, 0, 1, 1, 100,        45,        44, 1, 1, 0, 1, 0, 1, 0, 1, 0, 1
  1268,  2,      44.5,      2.55,        27,        -9,    1.029, 0,     100, 0, 1, 0, 0, 1, 1, 100,        45,        44, 1, 1, 0, 1, 0, 1, 0, 1, 0, 1
  1356,  1,        21,      0.11,         7,       -12,    1.057, 0,     100, 0, 1, 0, 0, 1, 1, 100,        22,       4.4, 1, 1, 0, 1, 0, 1, 0, 1, 0, 1
    89,  1,        24,       0.4,        13,        -9,    1.042, 0,     100, 0, 1, 0, 0, 1, 1, 100,        25,         5, 1, 1, 0, 1, 0, 1, 0, 1, 0, 1
  1837,  1,      5.24,      0.61,        16,       -17,    1.041, 0,     100, 0, 1, 0, 0, 1, 1, 100,        26,       5.2, 1, 1, 0, 1, 0, 1, 0, 1, 0, 1
  1837,  2,     22.86,      0.61,        16,       -17,    1.041, 0,     100, 0, 1, 0, 0, 1, 1, 100,        26,       5.2, 1, 1, 0, 1, 0, 1, 0, 1, 0, 1
   125,  1,     21.99,     -0.12,         8,       -17,    1.075, 0,     100, 0, 1, 0, 0, 1, 1, 100,      23.4,      4.68, 1, 1, 0, 1, 0, 1, 0, 1, 0, 1
   908,  1,        19,       1.9,         2,       1.9,    1.106, 0,     100, 0, 1, 0, 0, 1, 1, 100,        20,         4, 1, 1, 0, 1, 0, 1, 0, 1, 0, 1
   817,  1,      2.41,       0.9,         1,       0.9,    1.108, 0,     100, 0, 1, 0, 0, 1, 1, 100,        12,       2.4, 1, 1, 0, 1, 0, 1, 0, 1, 0, 1
   817,  2,      2.81,       0.9,         1,       0.9,    1.108, 0,     100, 0, 1, 0, 0, 1, 1, 100,        14,       2.8, 1, 1, 0, 1, 0, 1, 0, 1, 0, 1
   817,  3,      2.41,       0.9,         1,       0.9,    1.108, 0,     100, 0, 1, 0, 0, 1, 1, 100,        12,       2.4, 1, 1, 0, 1, 0, 1, 0, 1, 0, 1
  1335,  1,        29,      0.24,        10,       -10,    1.044, 0,     100, 0, 1, 0, 0, 1, 1, 100,        30,         6, 1, 1, 0, 1, 0, 1, 0, 1, 0, 1
   396,  1,         0,         0,         5,         1,    1.031, 0,     100, 0, 1, 0, 0, 1, 0, 100,        11,       2.2, 1, 1, 0, 1, 0, 1, 0, 1, 0, 1
   396,  2,         0,         0,         5,         1,    1.031, 0,     100, 0, 1, 0, 0, 1, 0, 100,        11,       2.2, 1, 1, 0, 1, 0, 1, 0, 1, 0, 1
   975,  1,     11.46,     -0.44,        15,       -15,    1.048, 0,     100, 0, 1, 0, 0, 1, 1, 100,        35,         7, 1, 1, 0, 1, 0, 1, 0, 1, 0, 1
   858,  1,      4.35,         0,         0,         0,    1.054, 0,     100, 0, 1, 0, 0, 1, 1, 100,      55.4,     11.08, 1, 1, 0, 1, 0, 1, 0, 1, 0, 1
   921,  1,     18.67,      0.47,        25,       -20,    1.085, 0,     100, 0, 1, 0, 0, 1, 1, 100,        42,       8.4, 1, 1, 0, 1, 0, 1, 0, 1, 0, 1
   921,  2,     39.85,      0.47,        25,       -20,    1.085, 0,     100, 0, 1, 0, 0, 1, 1, 100,        42,       8.4, 1, 1, 0, 1, 0, 1, 0, 1, 0, 1
  1255,  1,     43.51,     -8.31,      26.1,    -24.36,    1.067, 0,     100, 0, 1, 0, 0, 1, 1, 100,        87,      17.4, 1, 1, 0, 1, 0, 1, 0, 1, 0, 1
   169,  1,      3.38,      0.34,       8.3,      -8.3,    1.065, 0,     100, 0, 1, 0, 0, 1, 1, 100,       8.3,      1.66, 1, 1, 0, 1, 0, 1, 0, 1, 0, 1
   448,  1,      1.91,         0,         0,         0,    1.068, 0,     100, 0, 1, 0, 0, 1, 1, 100,         4,         0, 1, 1, 0, 1, 0, 1, 0, 1, 0, 1
   241,  1,         0,         0,         5,        -5,    1.027, 0,     100, 0, 1, 0, 0, 1, 0, 100,        13,       2.6, 1, 1, 0, 1, 0, 1, 0, 1, 0, 1
   241,  2,         0,         0,         5,        -5,    1.027, 0,     100, 0, 1, 0, 0, 1, 0, 100,        13,       2.6, 1, 1, 0, 1, 0, 1, 0, 1, 0, 1
   241,  3,         0,         0,         5,        -5,    1.027, 0,     100, 0, 1, 0, 0, 1, 0, 100,        13,       2.6, 1, 1, 0, 1, 0, 1, 0, 1, 0, 1
   241,  4,         0,         0,         5,        -5,    1.027, 0,     100, 0, 1, 0, 0, 1, 0, 100,        13,       2.6, 1, 1, 0, 1, 0, 1, 0, 1, 0, 1
   270,  1,     47.99,     14.03,        27,        -9,    1.022, 0,     100, 0, 1, 0, 0, 1, 1, 100,        50,        10, 1, 1, 0, 1, 0, 1, 0, 1, 0, 1
   885,  1,      -0.5,         0,         0,         0,    1.079, 0,     100, 0, 1, 0, 0, 1, 1, 100,         8,       1.6, 1, 1, 0, 1, 0, 1, 0, 1, 0, 1
   885,  2,      -0.5,         0,         0,         0,    1.079, 0,     100, 0, 1, 0, 0, 1, 1, 100,         8,       1.6, 1, 1, 0, 1, 0, 1, 0, 1, 0, 1
   876,  1,     -0.45,         0,         0,         0,    1.046, 0,     100, 0, 1, 0, 0, 1, 1, 100,        54,      10.8, 1, 1, 0, 1, 0, 1, 0, 1, 0, 1
   180,  1,    231.98,     -2.64,        80,       -75,    1.106, 0,     100, 0, 1, 0, 0, 1, 1, 100,       239,      47.8, 1, 1, 0, 1, 0, 1, 0, 1, 0, 1
    46,  1,      6.01,     -0.56,        10,        -4,    1.107, 0,     100, 0, 1, 0, 0, 1, 1, 100,        30,         6, 1, 1, 0, 1, 0, 1, 0, 1, 0, 1
   803,  1,       2.8,      0.02,      4.63,     -5.56,    1.067, 0,     100, 0, 1, 0, 0, 1, 1, 100,      13.8,      2.76, 1, 1, 0, 1, 0, 1, 0, 1, 0, 1
   356,  1,     28.81,      1.05,     12.42,    -11.59,     1.06, 0,     100, 0, 1, 0, 0, 1, 1, 100,      41.4,      8.28, 1, 1, 0, 1, 0, 1, 0, 1, 0, 1
   100,  1,       126,      9.82,        59,       -26,    1.047, 0,     100, 0, 1, 0, 0, 1, 1, 100,       130,        26, 1, 1, 0, 1, 0, 1, 0, 1, 0, 1
   707,  1,         0,         0,         8,        -8,    1.092, 0,     100, 0, 1, 0, 0, 1, 0, 100,        21,       4.2, 1, 1, 0, 1, 0, 1, 0, 1, 0, 1
   973,  1,     50.65,     -1.05,        17,       -10,    1.121, 0,     100, 0, 1, 0, 0, 1, 1, 100,        53,      10.6, 1, 1, 0, 1, 0, 1, 0, 1, 0, 1
  1118,  2,      -5.1,         0,         0,         0,    1.041, 0,     100, 0, 1, 0, 0, 1, 1, 100,        55,        11, 1, 1, 0, 1, 0, 1, 0, 1, 0, 1
   897,  1,      5.41,      0.09,        10,        -3,    1.069, 0,     100, 0, 1, 0, 0, 1, 1, 100,        27,       5.4, 1, 1, 0, 1, 0, 1, 0, 1, 0, 1
   897,  2,      5.41,      0.09,        10,        -3,    1.069, 0,     100, 0, 1, 0, 0, 1, 1, 100,        27,       5.4, 1, 1, 0, 1, 0, 1, 0, 1, 0, 1
    58,  2,      1.21,       1.9,         2,       1.9,    1.107, 0,     100, 0, 1, 0, 0, 1, 1, 100,         6,       1.2, 1, 1, 0, 1, 0, 1, 0, 1, 0, 1
    82,  1,      6.51,         0,         0,         0,    1.051, 0,     100, 0, 1, 0, 0, 1, 1, 100,      25.3,      5.06, 1, 1, 0, 1, 0, 1, 0, 1, 0, 1
   474,  1,      7.68,     -2.54,        10,       -13,    1.076, 0,     100, 0, 1, 0, 0, 1, 1, 100,        52,      10.4, 1, 1, 0, 1, 0, 1, 0, 1, 0, 1
  1221,  1,     11.61,      1.24,        35,       -35,    1.083, 0,     100, 0, 1, 0, 0, 1, 1, 100,        58,      11.6, 1, 1, 0, 1, 0, 1, 0, 1, 0, 1
   355,  1,         0,         0,        40,       -40,    1.092, 0,     100, 0, 1, 0, 0, 1, 0, 100,        62,      12.4, 1, 1, 0, 1, 0, 1, 0, 1, 0, 1
   471,  1,      4.25,      0.99,         1,         0,    1.039, 0,     100, 0, 1, 0, 0, 1, 1, 100,        78,      15.6, 1, 1, 0, 1, 0, 1, 0, 1, 0, 1
  1321,  1,      2.21,       0.9,         1,       0.9,    1.108, 0,     100, 0, 1, 0, 0, 1, 1, 100,        11,       2.2, 1, 1, 0, 1, 0, 1, 0, 1, 0, 1
  1321,  2,      0.01,        -0,       0.1,      -0.1,    1.108, 0,     100, 0, 1, 0, 0, 1, 0, 100,       2.5,         0, 1, 1, 0, 1, 0, 1, 0, 1, 0, 1
  1829,  2,      1.59,      2.37,         8,        -8,    1.054, 0,     100, 0, 1, 0, 0, 1, 1, 100,      23.5,       4.7, 1, 1, 0, 1, 0, 1, 0, 1, 0, 1
  1005,  1,     26.26,     -1.56,        19,       -19,     1.11, 0,     100, 0, 1, 0, 0, 1, 1, 100,        39,       7.8, 1, 1, 0, 1, 0, 1, 0, 1, 0, 1
    14,  1,      2.24,         0,         0,         0,    1.059, 0,     100, 0, 1, 0, 0, 1, 1, 100,      27.6,      5.52, 1, 1, 0, 1, 0, 1, 0, 1, 0, 1
    14,  2,      0.83,         0,         0,         0,    1.059, 0,     100, 0, 1, 0, 0, 1, 1, 100,        24,       4.8, 1, 1, 0, 1, 0, 1, 0, 1, 0, 1
  1628,  2,       200,     38.37,     155.3,   -217.55,    0.997, 0,     100, 0, 1, 0, 0, 1, 1, 100,       670,       200, 1, 1, 0, 1, 0, 1, 0, 1, 0, 1
  1629,  1,       140,     83.57,    231.39,   -190.58,    1.006, 0,     100, 0, 1, 0, 0, 1, 1, 100,       700,       140, 1, 1, 0, 1, 0, 1, 0, 1, 0, 1
  1842,  1,     18.78,      0.21,     15.23,    -10.77,    1.001, 0,     100, 0, 1, 0, 0, 1, 1, 100,        23,       4.6, 1, 1, 0, 1, 0, 1, 0, 1, 0, 1
  1843,  1,     11.18,      0.13,     15.06,    -10.94,    1.004, 0,     100, 0, 1, 0, 0, 1, 1, 100,        23,       4.6, 1, 1, 0, 1, 0, 1, 0, 1, 0, 1
  1844,  1,        26,      0.39,     24.62,    -15.38,    0.997, 0,     100, 0, 1, 0, 0, 1, 1, 100,        27,       5.4, 1, 1, 0, 1, 0, 1, 0, 1, 0, 1
  1630,  1,        83,      3.66,     43.86,      -8.5,    0.966, 0,     100, 0, 1, 0, 0, 1, 1, 100,        86,      17.2, 1, 1, 0, 1, 0, 1, 0, 1, 0, 1
  1631,  1,      9.81,      0.93,     22.19,     -9.73,     0.97, 0,     100, 0, 1, 0, 0, 1, 1, 100,        49,       9.8, 1, 1, 0, 1, 0, 1, 0, 1, 0, 1
  1845,  1,        25,     22.15,      71.8,    -30.08,     1.03, 0,     100, 0, 1, 0, 0, 1, 1, 100,       124,      24.8, 1, 1, 0, 1, 0, 1, 0, 1, 0, 1
  1846,  1,     30.99,      0.14,      8.36,     -8.36,     1.05, 0,     100, 0, 1, 0, 0, 1, 1, 100,        32,       6.4, 1, 1, 0, 1, 0, 1, 0, 1, 0, 1
  1632,  1,     30.99,      0.14,      8.36,     -8.36,     1.05, 0,     100, 0, 1, 0, 0, 1, 1, 100,        32,       6.4, 1, 1, 0, 1, 0, 1, 0, 1, 0, 1
  1847,  1,     30.99,      0.13,      8.15,     -8.57,     1.05, 0,     100, 0, 1, 0, 0, 1, 1, 100,        32,       6.4, 1, 1, 0, 1, 0, 1, 0, 1, 0, 1
  1848,  1,     30.99,      0.13,      8.15,     -8.57,     1.05, 0,     100, 0, 1, 0, 0, 1, 1, 100,        32,       6.4, 1, 1, 0, 1, 0, 1, 0, 1, 0, 1
  1849,  1,     88.99,     14.79,     55.77,    -34.23,    1.032, 0,     100, 0, 1, 0, 0, 1, 1, 100,        92,      18.4, 1, 1, 0, 1, 0, 1, 0, 1, 0, 1
  1850,  1,     88.99,      12.2,      50.5,     -39.5,    1.029, 0,     100, 0, 1, 0, 0, 1, 1, 100,        92,      18.4, 1, 1, 0, 1, 0, 1, 0, 1, 0, 1
  1851,  1,     87.24,     11.15,     56.32,    -33.68,    1.032, 0,     100, 0, 1, 0, 0, 1, 1, 100,        92,      18.4, 1, 1, 0, 1, 0, 1, 0, 1, 0, 1
  1852,  1,     88.98,     10.09,     54.57,    -35.43,     1.03, 0,     100, 0, 1, 0, 0, 1, 1, 100,        92,      18.4, 1, 1, 0, 1, 0, 1, 0, 1, 0, 1
  1853,  1,     88.99,     14.58,     55.26,    -34.74,    1.032, 0,     100, 0, 1, 0, 0, 1, 1, 100,        92,      18.4, 1, 1, 0, 1, 0, 1, 0, 1, 0, 1
  1854,  1,     88.99,      15.2,     56.48,    -33.52,    1.033, 0,     100, 0, 1, 0, 0, 1, 1, 100,        92,      18.4, 1, 1, 0, 1, 0, 1, 0, 1, 0, 1
  1633,  1,       919,      97.3,    421.39,   -376.62,    1.013, 0,     100, 0, 1, 0, 0, 1, 1, 100,    945.08,    255.07, 1, 1, 0, 1, 0, 1, 0, 1, 0, 1
  1634,  1,       951,    100.85,    428.83,   -369.21,    1.013, 0,     100, 0, 1, 0, 0, 1, 1, 100,    978.04,    288.05, 1, 1, 0, 1, 0, 1, 0, 1, 0, 1
  1635,  1,       949,     100.5,    428.07,   -369.92,    1.013, 0,     100, 0, 1, 0, 0, 1, 1, 100,    976.08,    256.08, 1, 1, 0, 1, 0, 1, 0, 1, 0, 1
  1636,  1,       917,     97.05,    420.86,   -377.13,    1.013, 0,     100, 0, 1, 0, 0, 1, 1, 100,    943.08,    253.07, 1, 1, 0, 1, 0, 1, 0, 1, 0, 1
  1637,  1,    244.97,     62.23,    153.03,    -90.23,    1.033, 0,     100, 0, 1, 0, 0, 1, 1, 100,       252,       156, 1, 1, 0, 1, 0, 1, 0, 1, 0, 1
  1638,  1,    242.98,     62.04,    152.44,    -90.81,    1.029, 0,     100, 0, 1, 0, 0, 1, 1, 100,       250,       154, 1, 1, 0, 1, 0, 1, 0, 1, 0, 1
  1639,  1,    242.98,     30.36,    105.68,    -58.28,    1.033, 0,     100, 0, 1, 0, 0, 1, 1, 100,       250,       154, 1, 1, 0, 1, 0, 1, 0, 1, 0, 1
  1640,  1,    122.01,     67.05,    228.81,   -159.91,     1.05, 0,     100, 0, 1, 0, 0, 1, 1, 100,       305,       122, 1, 1, 0, 1, 0, 1, 0, 1, 0, 1
  1641,  1,     89.01,     23.65,     94.32,    -74.64,    1.045, 0,     100, 0, 1, 0, 0, 1, 1, 100,       155,        89, 1, 1, 0, 1, 0, 1, 0, 1, 0, 1
  1642,  1,     55.99,      1.17,     21.65,    -18.77,    1.006, 0,     100, 0, 1, 0, 0, 1, 1, 100,        58,      11.6, 1, 1, 0, 1, 0, 1, 0, 1, 0, 1
  1643,  1,     55.99,      0.65,     16.01,    -10.66,    1.005, 0,     100, 0, 1, 0, 0, 1, 1, 100,        58,      11.6, 1, 1, 0, 1, 0, 1, 0, 1, 0, 1
  1855,  1,     55.99,      1.15,     21.47,    -18.95,    1.006, 0,     100, 0, 1, 0, 0, 1, 1, 100,        58,      11.6, 1, 1, 0, 1, 0, 1, 0, 1, 0, 1
  1644,  1,     55.99,      0.65,     16.05,    -10.62,    1.005, 0,     100, 0, 1, 0, 0, 1, 1, 100,        58,      11.6, 1, 1, 0, 1, 0, 1, 0, 1, 0, 1
  1645,  1,     55.99,      0.63,     15.81,    -10.86,    1.005, 0,     100, 0, 1, 0, 0, 1, 1, 100,        58,      11.6, 1, 1, 0, 1, 0, 1, 0, 1, 0, 1
  1646,  1,    254.99,     70.77,    146.45,    -90.18,    1.007, 0,     100, 0, 1, 0, 0, 1, 1, 100,       263,       133, 1, 1, 0, 1, 0, 1, 0, 1, 0, 1
  1647,  1,        43,      6.41,     50.67,    -38.09,    1.061, 0,     100, 0, 1, 0, 0, 1, 1, 100,     44.96,      8.99, 1, 1, 0, 1, 0, 1, 0, 1, 0, 1
  1856,  1,    134.98,     -2.41,    108.44,    -71.56,    1.023, 0,     100, 0, 1, 0, 0, 1, 1, 100,       139,      27.8, 1, 1, 0, 1, 0, 1, 0, 1, 0, 1
  1857,  1,     29.44,     -0.23,     34.32,    -25.68,    0.986, 0,     100, 0, 1, 0, 0, 1, 1, 100,        49,       9.8, 1, 1, 0, 1, 0, 1, 0, 1, 0, 1
  1858,  1,      24.2,     -0.64,     55.44,    -44.56,     0.99, 0,     100, 0, 1, 0, 0, 1, 1, 100,        49,       9.8, 1, 1, 0, 1, 0, 1, 0, 1, 0, 1
  1859,  1,     46.98,     -0.22,     34.29,    -25.71,    0.988, 0,     100, 0, 1, 0, 0, 1, 1, 100,        49,       9.8, 1, 1, 0, 1, 0, 1, 0, 1, 0, 1
  2070,  1,      9.82,     -0.19,     31.96,    -28.04,    0.992, 0,     100, 0, 1, 0, 0, 1, 1, 100,        49,       9.8, 1, 1, 0, 1, 0, 1, 0, 1, 0, 1
  1860,  1,     30.99,      1.77,     18.84,    -17.16,    1.039, 0,     100, 0, 1, 0, 0, 1, 1, 100,        32,       6.4, 1, 1, 0, 1, 0, 1, 0, 1, 0, 1
  1861,  1,     30.99,      1.95,     19.75,    -16.25,    1.046, 0,     100, 0, 1, 0, 0, 1, 1, 100,        32,       6.4, 1, 1, 0, 1, 0, 1, 0, 1, 0, 1
  1648,  1,    909.99,    374.32,    530.99,   -158.23,     1.05, 0,     100, 0, 1, 0, 0, 1, 1, 100,    936.29,    266.29, 1, 1, 0, 1, 0, 1, 0, 1, 0, 1
  1649,  1,    915.99,    334.43,    533.69,   -156.07,    1.045, 0,     100, 0, 1, 0, 0, 1, 1, 100,    942.82,    272.82, 1, 1, 0, 1, 0, 1, 0, 1, 0, 1
  1650,  1,    897.99,     374.9,    537.68,   -152.82,     1.05, 0,     100, 0, 1, 0, 0, 1, 1, 100,    924.28,    274.28, 1, 1, 0, 1, 0, 1, 0, 1, 0, 1
  1651,  1,    896.99,    322.99,    529.89,   -160.89,    1.044, 0,     100, 0, 1, 0, 0, 1, 1, 100,     922.8,     272.8, 1, 1, 0, 1, 0, 1, 0, 1, 0, 1
  1652,  1,      1272,    169.83,    681.04,      -153,    1.018, 0,     100, 0, 1, 0, 0, 1, 1, 100,      1308,       318, 1, 1, 0, 1, 0, 1, 0, 1, 0, 1
  1862,  1,      1272,    169.33,    681.03,      -153,    1.018, 0,     100, 0, 1, 0, 0, 1, 1, 100,      1308,       318, 1, 1, 0, 1, 0, 1, 0, 1, 0, 1
  1653,  1,     33.99,      0.07,      6.08,     -1.92,    1.041, 0,     100, 0, 1, 0, 0, 1, 1, 100,        35,         7, 1, 1, 0, 1, 0, 1, 0, 1, 0, 1
  1654,  1,     33.99,      0.08,      6.21,     -1.79,    1.041, 0,     100, 0, 1, 0, 0, 1, 1, 100,        35,         7, 1, 1, 0, 1, 0, 1, 0, 1, 0, 1
  1655,  1,     33.99,      0.08,      6.21,     -1.79,    1.041, 0,     100, 0, 1, 0, 0, 1, 1, 100,        35,         7, 1, 1, 0, 1, 0, 1, 0, 1, 0, 1
  1656,  1,     33.99,      0.07,      6.11,     -1.89,    1.041, 0,     100, 0, 1, 0, 0, 1, 1, 100,        35,         7, 1, 1, 0, 1, 0, 1, 0, 1, 0, 1
  1657,  1,     33.99,      0.07,      6.11,     -1.89,    1.041, 0,     100, 0, 1, 0, 0, 1, 1, 100,        35,         7, 1, 1, 0, 1, 0, 1, 0, 1, 0, 1
  1658,  1,     33.99,      0.07,      6.11,     -1.89,    1.041, 0,     100, 0, 1, 0, 0, 1, 1, 100,        35,         7, 1, 1, 0, 1, 0, 1, 0, 1, 0, 1
  1863,  1,     29.13,      1.23,     18.45,    -13.16,    0.996, 0,     100, 0, 1, 0, 0, 1, 1, 100,     36.97,      7.39, 1, 1, 0, 1, 0, 1, 0, 1, 0, 1
  1659,  1,      30.6,      1.25,     18.45,    -13.16,    0.996, 0,     100, 0, 1, 0, 0, 1, 1, 100,     36.97,      7.39, 1, 1, 0, 1, 0, 1, 0, 1, 0, 1
  1660,  1,     30.59,      1.25,     18.45,    -11.35,    0.996, 0,     100, 0, 1, 0, 0, 1, 1, 100,     36.97,      7.39, 1, 1, 0, 1, 0, 1, 0, 1, 0, 1
  1661,  1,     30.59,      1.21,     18.11,     -11.7,    0.996, 0,     100, 0, 1, 0, 0, 1, 1, 100,     36.97,      7.39, 1, 1, 0, 1, 0, 1, 0, 1, 0, 1
  1662,  1,     30.64,      1.21,     18.21,    -13.41,    0.995, 0,     100, 0, 1, 0, 0, 1, 1, 100,     36.97,      7.39, 1, 1, 0, 1, 0, 1, 0, 1, 0, 1
  1663,  1,     30.59,      1.25,     18.55,    -13.05,    0.995, 0,     100, 0, 1, 0, 0, 1, 1, 100,     36.97,      7.39, 1, 1, 0, 1, 0, 1, 0, 1, 0, 1
  1864,  1,     18.35,       0.2,     10.54,     -9.46,    0.975, 0,     100, 0, 1, 0, 0, 1, 1, 100,        20,         4, 1, 1, 0, 1, 0, 1, 0, 1, 0, 1
  1865,  1,     18.99,      0.24,     12.32,     -7.68,    0.975, 0,     100, 0, 1, 0, 0, 1, 1, 100,        20,         4, 1, 1, 0, 1, 0, 1, 0, 1, 0, 1
  1866,  1,      27.1,      1.13,     17.85,    -13.79,    0.994, 0,     100, 0, 1, 0, 0, 1, 1, 100,     30.98,       6.2, 1, 1, 0, 1, 0, 1, 0, 1, 0, 1
  1664,  1,     27.56,      1.13,     17.85,    -13.79,    0.993, 0,     100, 0, 1, 0, 0, 1, 1, 100,     30.98,       6.2, 1, 1, 0, 1, 0, 1, 0, 1, 0, 1
  1665,  1,     27.57,      1.15,     18.01,    -13.62,    0.994, 0,     100, 0, 1, 0, 0, 1, 1, 100,     30.98,       6.2, 1, 1, 0, 1, 0, 1, 0, 1, 0, 1
  1867,  1,     27.03,      1.15,     18.01,    -13.62,    0.994, 0,     100, 0, 1, 0, 0, 1, 1, 100,     30.98,       6.2, 1, 1, 0, 1, 0, 1, 0, 1, 0, 1
  1666,  1,     26.84,      1.15,     17.89,    -13.75,    0.995, 0,     100, 0, 1, 0, 0, 1, 1, 100,     30.98,       6.2, 1, 1, 0, 1, 0, 1, 0, 1, 0, 1
  1868,  1,     26.48,      1.12,     17.74,    -13.91,    0.995, 0,     100, 0, 1, 0, 0, 1, 1, 100,     30.98,       6.2, 1, 1, 0, 1, 0, 1, 0, 1, 0, 1
  1667,  1,   1292.99,    298.16,    656.06,   -184.89,     1.04, 0,     100, 0, 1, 0, 0, 1, 1, 100,      1330,       337, 1, 1, 0, 1, 0, 1, 0, 1, 0, 1
  1869,  1,       467,    237.96,    515.51,   -327.72,     1.04, 0,     100, 0, 1, 0, 0, 1, 1, 100,      1360,       467, 1, 1, 0, 1, 0, 1, 0, 1, 0, 1
  1668,  1,   1321.99,    339.94,    656.92,    -183.9,    1.042, 0,     100, 0, 1, 0, 0, 1, 1, 100,      1360,       367, 1, 1, 0, 1, 0, 1, 0, 1, 0, 1
  1669,  1,   1321.99,    388.22,    648.03,    -192.8,    1.048, 0,     100, 0, 1, 0, 0, 1, 1, 100,      1360,       367, 1, 1, 0, 1, 0, 1, 0, 1, 0, 1
  1870,  1,     73.37,     -0.21,     60.11,    -39.89,    0.977, 0,     100, 0, 1, 0, 0, 1, 1, 100,        90,        18, 1, 1, 0, 1, 0, 1, 0, 1, 0, 1
  1871,  1,         0,         0,     59.33,    -40.67,    1.036, 0,     100, 0, 1, 0, 0, 1, 0, 100,        95,        19, 1, 1, 0, 1, 0, 1, 0, 1, 0, 1
  1872,  1,         0,         0,     59.61,    -40.39,    0.993, 0,     100, 0, 1, 0, 0, 1, 0, 100,       102,      20.4, 1, 1, 0, 1, 0, 1, 0, 1, 0, 1
  1670,  1,      1.45,     36.47,    281.46,   -103.91,    1.018, 0,     100, 0, 1, 0, 0, 1, 1, 100,       1.5,       1.4, 1, 1, 0, 1, 0, 1, 0, 1, 0, 1
  1873,  1,     48.01,     27.82,     94.03,    -45.97,    1.027, 0,     100, 0, 1, 0, 0, 1, 1, 100,       240,        48, 1, 1, 0, 1, 0, 1, 0, 1, 0, 1
  1874,  1,     48.01,     28.46,     95.11,    -44.89,    1.028, 0,     100, 0, 1, 0, 0, 1, 1, 100,       240,        48, 1, 1, 0, 1, 0, 1, 0, 1, 0, 1
  1671,  1,       916,    260.32,     524.6,    -107.2,    1.029, 0,     100, 0, 1, 0, 0, 1, 1, 100,    942.72,    232.72, 1, 1, 0, 1, 0, 1, 0, 1, 0, 1
  1673,  1,       927,    248.37,    511.64,    -99.08,    1.027, 0,     100, 0, 1, 0, 0, 1, 1, 100,    953.74,    243.74, 1, 1, 0, 1, 0, 1, 0, 1, 0, 1
  1674,  1,       926,    289.77,    555.41,    -99.32,    1.032, 0,     100, 0, 1, 0, 0, 1, 1, 100,    952.74,    242.74, 1, 1, 0, 1, 0, 1, 0, 1, 0, 1
  1675,  1,      1461,    440.04,    682.28,   -126.36,    1.053, 0,     100, 0, 1, 0, 0, 1, 1, 100,      1503,       403, 1, 1, 0, 1, 0, 1, 0, 1, 0, 1
  1676,  1,      1461,    485.35,    687.17,   -121.66,    1.057, 0,     100, 0, 1, 0, 0, 1, 1, 100,      1503,       403, 1, 1, 0, 1, 0, 1, 0, 1, 0, 1
  1875,  1,      1456,     60.96,    409.45,   -352.29,    1.002, 0,     100, 0, 1, 0, 0, 1, 1, 100,      1498,       398, 1, 1, 0, 1, 0, 1, 0, 1, 0, 1
  1677,  1,      1456,     61.04,    409.42,   -352.33,    1.002, 0,     100, 0, 1, 0, 0, 1, 1, 100,      1498,       398, 1, 1, 0, 1, 0, 1, 0, 1, 0, 1
  1877,  1,     15.01,     12.32,     51.88,    -38.44,    1.077, 0,     100, 0, 1, 0, 0, 1, 1, 100,        75,        15, 1, 1, 0, 1, 0, 1, 0, 1, 0, 1
  1878,  1,     15.01,     12.32,     51.88,    -38.44,    1.077, 0,     100, 0, 1, 0, 0, 1, 1, 100,        75,        15, 1, 1, 0, 1, 0, 1, 0, 1, 0, 1
  1678,  1,        92,     17.39,    104.12,     -61.4,    1.001, 0,     100, 0, 1, 0, 0, 1, 1, 100,        95,       8.5, 1, 1, 0, 1, 0, 1, 0, 1, 0, 1
  1679,  1,        92,     17.33,    103.94,    -61.58,    1.001, 0,     100, 0, 1, 0, 0, 1, 1, 100,        95,       8.5, 1, 1, 0, 1, 0, 1, 0, 1, 0, 1
  1680,  1,       144,     22.42,     86.67,    -10.65,    1.007, 0,     100, 0, 1, 0, 0, 1, 1, 100,     148.2,       4.2, 1, 1, 0, 1, 0, 1, 0, 1, 0, 1
  1681,  1,     602.4,     48.47,    220.22,    -59.17,    0.997, 0,     100, 0, 1, 0, 0, 1, 1, 100,       685,       180, 1, 1, 0, 1, 0, 1, 0, 1, 0, 1
  1682,  1,       593,    106.38,    330.28,   -165.24,    1.007, 0,     100, 0, 1, 0, 0, 1, 1, 100,       610,       310, 1, 1, 0, 1, 0, 1, 0, 1, 0, 1
  1683,  1,       593,     87.13,    297.67,   -191.83,    1.003, 0,     100, 0, 1, 0, 0, 1, 1, 100,       610,       310, 1, 1, 0, 1, 0, 1, 0, 1, 0, 1
  1684,  1,    585.86,     86.28,    254.82,   -293.65,    1.004, 0,     100, 0, 1, 0, 0, 1, 1, 100,       700,       205, 1, 1, 0, 1, 0, 1, 0, 1, 0, 1
  1880,  1,     14.03,      0.29,     16.85,    -27.03,    1.056, 0,     100, 0, 1, 0, 0, 1, 1, 100,        38,       7.6, 1, 1, 0, 1, 0, 1, 0, 1, 0, 1
  2045,  1,         0,         0,     15.82,    -14.18,    1.045, 0,     100, 0, 1, 0, 0, 1, 0, 100,        31,       6.2, 1, 1, 0, 1, 0, 1, 0, 1, 0, 1
  2081,  1,         0,         0,     15.82,    -14.18,    1.045, 0,     100, 0, 1, 0, 0, 1, 0, 100,        31,       6.2, 1, 1, 0, 1, 0, 1, 0, 1, 0, 1
  1881,  1,     45.83,      0.75,      15.6,     -13.8,    0.976, 0,     100, 0, 1, 0, 0, 1, 1, 100,        50,        10, 1, 1, 0, 1, 0, 1, 0, 1, 0, 1
...